8
Lattice="16.0 0.0 0.0 0.0 16.0 0.0 0.0 0.0 16.0" Properties=species:S:1:pos:R:3:tags:I:1 pbc="F F F"
Na       7.16687922       7.46367378      10.60626522        0
Na      10.40008275      10.08330435       8.59852446        1
Na       7.51996338      10.67589142      10.04731682        2
Na       8.31318913      10.07034849       5.78283809        3
Na       5.09450297       9.24423971       6.90855512        4
Na      10.20964405       7.61451462       7.04196955        5
Na       7.15808222       6.92634939       5.84410016        6
Na       8.21299455       5.27665706       8.78987547        7
