data_image0
_chemical_formula_structural       Na10
_chemical_formula_sum              "Na10"
_cell_length_a       5.9821233688381925
_cell_length_b       5.9821233688381925
_cell_length_c       30.989862374024533
_cell_angle_alpha    90.0
_cell_angle_beta     90.0
_cell_angle_gamma    59.99999999999999

_space_group_name_H-M_alt    "P 1"
_space_group_IT_number       1

loop_
  _space_group_symop_operation_xyz
  'x, y, z'

loop_
  _atom_site_type_symbol
  _atom_site_label
  _atom_site_symmetry_multiplicity
  _atom_site_fract_x
  _atom_site_fract_y
  _atom_site_fract_z
  _atom_site_occupancy
  Na  Na1       1.0  0.0  0.0  0.3226861700548217  1.0000
  Na  Na2       1.0  0.33333333333333326  0.3333333333333333  0.3620892433759724  1.0000
  Na  Na3       1.0  0.6666666666666664  0.6666666666666667  0.40149231669712315  1.0000
  Na  Na4       1.0  0.9999999999999997  5.767561968126814e-17  0.4408953900182739  1.0000
  Na  Na5       1.0  0.3333333333333328  0.3333333333333334  0.4802984633394246  1.0000
  Na  Na6       1.0  0.6666666666666661  0.6666666666666667  0.5197015366605754  1.0000
  Na  Na7       1.0  0.9999999999999993  2.2204460492503128e-16  0.5591046099817261  1.0000
  Na  Na8       1.0  0.3333333333333326  0.3333333333333336  0.5985076833028768  1.0000
  Na  Na9       1.0  0.6666666666666656  0.6666666666666669  0.6379107566240275  1.0000
  Na  Na10      1.0  0.9999999999999994  2.2204460492503128e-16  0.6773138299451784  1.0000
