data_image0
_chemical_formula_structural       Na10
_chemical_formula_sum              "Na10"
_cell_length_a       4.23
_cell_length_b       4.23
_cell_length_c       39.035
_cell_angle_alpha    90.0
_cell_angle_beta     90.0
_cell_angle_gamma    90.0

_space_group_name_H-M_alt    "P 1"
_space_group_IT_number       1

loop_
  _space_group_symop_operation_xyz
  'x, y, z'

loop_
  _atom_site_type_symbol
  _atom_site_label
  _atom_site_symmetry_multiplicity
  _atom_site_fract_x
  _atom_site_fract_y
  _atom_site_fract_z
  _atom_site_occupancy
  Na  Na1       1.0  0.0  0.0  0.2561803509670808  1.0000
  Na  Na2       1.0  0.5  0.5  0.31036249519661846  1.0000
  Na  Na3       1.0  0.0  0.0  0.36454463942615606  1.0000
  Na  Na4       1.0  0.5  0.5  0.4187267836556936  1.0000
  Na  Na5       1.0  0.0  0.0  0.47290892788523126  1.0000
  Na  Na6       1.0  0.5  0.5  0.5270910721147688  1.0000
  Na  Na7       1.0  0.0  0.0  0.5812732163443064  1.0000
  Na  Na8       1.0  0.5  0.5  0.635455360573844  1.0000
  Na  Na9       1.0  0.0  0.0  0.6896375048033816  1.0000
  Na  Na10      1.0  0.5  0.5  0.7438196490329191  1.0000
