data_image0
_chemical_formula_structural       Na22
_chemical_formula_sum              "Na22"
_cell_length_a       5.930080309742862
_cell_length_b       5.930080309742862
_cell_length_c       75.41992406204237
_cell_angle_alpha    90.0
_cell_angle_beta     90.0
_cell_angle_gamma    59.99999999999999

_space_group_name_H-M_alt    "P 1"
_space_group_IT_number       1

loop_
  _space_group_symop_operation_xyz
  'x, y, z'

loop_
  _atom_site_type_symbol
  _atom_site_label
  _atom_site_symmetry_multiplicity
  _atom_site_fract_x
  _atom_site_fract_y
  _atom_site_fract_z
  _atom_site_occupancy
  Na  Na1       1.0  0.0  0.0  0.33147739554118827  1.0000
  Na  Na2       1.0  0.33333333333333337  0.33333333333333337  0.3475271673944084  1.0000
  Na  Na3       1.0  0.6666666666666667  0.6666666666666667  0.36357693924762857  1.0000
  Na  Na4       1.0  0.0  0.0  0.3796267111008487  1.0000
  Na  Na5       1.0  0.3333333333333335  0.33333333333333326  0.3956764829540689  1.0000
  Na  Na6       1.0  0.6666666666666667  0.6666666666666665  0.411726254807289  1.0000
  Na  Na7       1.0  0.0  0.0  0.42777602666050923  1.0000
  Na  Na8       1.0  0.3333333333333335  0.33333333333333326  0.4438257985137294  1.0000
  Na  Na9       1.0  0.666666666666667  0.6666666666666665  0.45987557036694954  1.0000
  Na  Na10      1.0  0.0  0.9999999999999999  0.4759253422201697  1.0000
  Na  Na11      1.0  0.3333333333333335  0.33333333333333304  0.49197511407338984  1.0000
  Na  Na12      1.0  0.6666666666666666  0.6666666666666663  0.50802488592661  1.0000
  Na  Na13      1.0  0.0  0.0  0.5240746577798303  1.0000
  Na  Na14      1.0  0.33333333333333304  0.33333333333333304  0.5401244296330504  1.0000
  Na  Na15      1.0  0.666666666666667  0.6666666666666665  0.5561742014862706  1.0000
  Na  Na16      1.0  0.0  0.9999999999999996  0.5722239733394906  1.0000
  Na  Na17      1.0  0.3333333333333339  0.33333333333333304  0.5882737451927109  1.0000
  Na  Na18      1.0  0.666666666666667  0.6666666666666661  0.6043235170459311  1.0000
  Na  Na19      1.0  0.0  0.9999999999999996  0.6203732888991512  1.0000
  Na  Na20      1.0  0.3333333333333339  0.3333333333333326  0.6364230607523713  1.0000
  Na  Na21      1.0  0.666666666666667  0.6666666666666661  0.6524728326055915  1.0000
  Na  Na22      1.0  0.0  0.9999999999999996  0.6685226044588117  1.0000
